go atlas

# Set the lattice temperature
set TL = 300.0
#set TL = 77.0
#set TL = 180.0

# --------------- All the key fitting parameters identified -----------------#
set dEc_per = 0.7
set x_Ga_qwell = 0.356
set num_BtoC_coupling_states = 1
#NOTE: the room-temperature simulations do not need the following two parameters.
set eg300_InGaAs = 0.614
set eg300_fit_offset_InGaAs = 0.12
# ---------------------------------------------------------------------------#

# ---- History of the trial of the parameter 'QM_solver_grid' ---- #
# NOTE: just setting 'QM_solver_grid = 30' is good enough to solve for
#       'num_BtoC_coupling_states=1'
#set QM_solver_grid = 30
# Other grid number that was trialed by failed:
# NOTE: for grid number between 70 ~ 140, I have not tested; 
#       but I do not think they will work.
# The grid number parameter below were tested and none of them worked.
#set QM_solver_grid = 150
#set QM_solver_grid = 30
set QM_solver_grid = 80
#set QM_solver_grid = 40
#------------------------------------------------------------------#


#------------------------------------------------------------------------ 
#Section 1: define device geometry parameters 
#------------------------------------------------------------------------ 
# define QW thickness; unit=[um] 
##set qwell_width = 0.006
##set barrier_width = 0.05
#
#NOTE: The device geometry defined below is slightly different from the previous
#      interband/intraband transition characterisation studies.
#      We added a few extra device dimensions to make it a quasi device.

#NOTE: The device structure here characterises the right-half radial QWs of a single NW.
# Define device dimensions with superlattice QWs; unit=[um]
set qwell_width_1   = 4.8e-3  # Width of the quantum well 
set qwell_width_2   = 4.3e-3  # Width of the quantum well 
set qwell_width_3   = 3.5e-3  # Width of the quantum well 
set qwell_width_4   = 2.8e-3  # Width of the quantum well 
set qwell_width_5   = 2.6e-3  # Width of the quantum well 

set barrier_width_0   = 25.0e-3  # Width of the barrier     
set barrier_width_1   = 50.0e-3  # Width of the barrier      
set barrier_width_2   = 36.8e-3  # Width of the barrier      
set barrier_width_3   = 31.0e-3  # Width of the barrier      
set barrier_width_4   = 25.5e-3  # Width of the barrier      
set barrier_width_5   = 25.5e-3  # Width of the barrier      

set InP_outer_shell = 33.0e-3
set InP_core_radius = 92.5e-3
set dummy_width_NW_core = 0.4  # this is a dummy region in addition to the actual NW core size
                               # to account for the carrier transport in the vertical direction, going
                               # through the NW core and substrate.
                               # NOTE: there is no right dummy region as ITO is used as the contact
                               # deposited onto the NW outer shell.
set dummy_width_sub = 0.5

# NOTE: the left side here is actually the right most side of the NW 
set left_bulk_width    = $InP_outer_shell-$barrier_width_5
# NOTE: the right side here is actually the centre of the NW core and all the way down to the substrate
# 'right_bulk_width' accounts for (1) the left-over segment of the NW core in the radial direction
# and (2) the NW core in the axial direction.
set right_bulk_width   = $InP_core_radius-$barrier_width_0+$dummy_width_NW_core
set right_sub_width    = $dummy_width_sub

# The height of the inner InP core is 1018 nm.
# let's just take 1um as the height
set nw_core_height  = 1.0
set nw_facet_length = 0.03


# 
#------------------------------------------------------------------------ 
#Section 2: define domain mesh parameters 
#------------------------------------------------------------------------ 
# 1. mesh grid for NW 
# 1.1 mesh grid spacing for x-direction (radially) 
set gs_x = 0.05

# 1.2 mesh grid spacing for y-direction (axially) 
set gs_bulk = 4.0e-3
set gs_sub = 20.0e-3
set gs_barrier = 2.0e-3
set gs_qwell = 4.0e-4

#** set number of refined grids for Schrodinger solver 
#set QM_solver_grid = 30
 
# 
#------------------------------------------------------------------------ 
#Section 3: define some material properties 
#------------------------------------------------------------------------ 
# Materials fractions and doping 
# QW was initially suspected to be made of In(1-x)Ga(x)As(y)P(1-y)
# But we decided to consider it made of In(1-x)Ga(x)As
# The following parameters setting up the QW: In(1-x)Ga(x)As

## This gives a bandgap of ~0.586eV
#set x_Ga_qwell = 0.317

# doping concentration; unit=[1/cm^3] 
set dpconc_bulk_contact = 1.0e16
set dpconc_qwell        = 1.0e16
set dpconc_barrier      = 1.0e16
set dpconc_sub          = 3.0e18

# 
#------------------------------------------------------------------------ 
#Section 4: define mesh 
#------------------------------------------------------------------------ 
mesh width=$nw_facet_length space.mult=1.0  
 
#---------------------- x-direction: ------------------------#
x.mesh loc =  0.0                   spacing = $gs_x
x.mesh loc =  $nw_core_height       spacing = $gs_x
#------------------------------------------------------------#

 
# y-direction 
# left bulk contact region
y.mesh loc = -$left_bulk_width                    spacing = $gs_bulk
y.mesh loc = -$gs_bulk                            spacing = $gs_bulk

# ----------------------------- Periodic multi-QW structure -----------------------------------#
# repetitive unit structure: 
# // barrier--qwell //
# repeat qwell #1
y.mesh loc =  0.0                                   spacing = $gs_barrier
y.mesh loc =  $barrier_width_5-$gs_barrier          spacing = $gs_barrier
y.mesh loc =  $barrier_width_5                      spacing = $gs_qwell
y.mesh loc =  $barrier_width_5+$qwell_width_5       spacing = $gs_qwell
set comb5  =  $barrier_width_5+$qwell_width_5

# repeat qwell #2
y.mesh loc =  $comb5+$gs_barrier                          spacing = $gs_barrier
y.mesh loc =  $comb5+$barrier_width_4-$gs_barrier         spacing = $gs_barrier
y.mesh loc =  $comb5+$barrier_width_4                     spacing = $gs_qwell
y.mesh loc =  $comb5+$barrier_width_4+$qwell_width_4      spacing = $gs_qwell
set comb4  =  $comb5+$barrier_width_4+$qwell_width_4

# repeat qwell #3
y.mesh loc =  $comb4+$gs_barrier                          spacing = $gs_barrier
y.mesh loc =  $comb4+$barrier_width_3-$gs_barrier         spacing = $gs_barrier
y.mesh loc =  $comb4+$barrier_width_3                     spacing = $gs_qwell
y.mesh loc =  $comb4+$barrier_width_3+$qwell_width_3      spacing = $gs_qwell
set comb3  =  $comb4+$barrier_width_3+$qwell_width_3

# repeat qwell #4
y.mesh loc =  $comb3+$gs_barrier                          spacing = $gs_barrier
y.mesh loc =  $comb3+$barrier_width_2-$gs_barrier         spacing = $gs_barrier
y.mesh loc =  $comb3+$barrier_width_2                     spacing = $gs_qwell
y.mesh loc =  $comb3+$barrier_width_2+$qwell_width_2      spacing = $gs_qwell
set comb2  =  $comb3+$barrier_width_2+$qwell_width_2

# repeat qwell #5
y.mesh loc =  $comb2+$gs_barrier                          spacing = $gs_barrier
y.mesh loc =  $comb2+$barrier_width_1-$gs_barrier         spacing = $gs_barrier
y.mesh loc =  $comb2+$barrier_width_1                     spacing = $gs_qwell
y.mesh loc =  $comb2+$barrier_width_1+$qwell_width_1      spacing = $gs_qwell
set comb1  =  $comb2+$barrier_width_1+$qwell_width_1


# right barrier
y.mesh loc = $comb1+$gs_barrier               spacing = $gs_barrier
y.mesh loc = $comb1+$barrier_width_0          spacing = $gs_barrier
set comb0  = $comb1+$barrier_width_0
# --------------------------END: Periodic multi-QW structure ----------------------------------#

# right bulk contact region
y.mesh loc = $comb0+$gs_bulk                              spacing = $gs_bulk
y.mesh loc = $comb0+$right_bulk_width                     spacing = $gs_bulk
y.mesh loc = $comb0+$right_bulk_width+$right_sub_width    spacing = $gs_sub


# Eliminate mesh grids in substrate 
 
# apply 2 times for radial N and outer I shells 
# left 
#eliminate rows x.min=-$"SUBSTRATE_HEIGHT"-$"OXCIDE_HEIGHT" x.max=-$"OXCIDE_HEIGHT" y.min=-$"INP_NPLUS_SHELL_RADIUS" y.max= -$"INGAAS_QW_RADIUS" 
#eliminate rows x.min=-$"SUBSTRATE_HEIGHT"-$"OXCIDE_HEIGHT" x.max=-$"OXCIDE_HEIGHT" y.min=-$"INP_NPLUS_SHELL_RADIUS" y.max= -$"INGAAS_QW_RADIUS" 
# right 
#eliminate rows x.min=-$"SUBSTRATE_HEIGHT"-$"OXCIDE_HEIGHT" x.max=-$"OXCIDE_HEIGHT" y.min= $"INGAAS_QW_RADIUS" y.max= $"INP_NPLUS_SHELL_RADIUS"  
#eliminate rows x.min=-$"SUBSTRATE_HEIGHT"-$"OXCIDE_HEIGHT" x.max=-$"OXCIDE_HEIGHT" y.min= $"INGAAS_QW_RADIUS" y.max= $"INP_NPLUS_SHELL_RADIUS"  
 
 
# 
#------------------------------------------------------------------------ 
#Section 5: define region and material properties 
#------------------------------------------------------------------------ 
region num=1  name=rg_bulk_outer     material=InP     y.max=0.0

# Repeat QW5 system
region num=2  name=rg_barrier  material=InP     y.min=0.0
region num=3  name=rg_qwell    material=InGaAs x.comp=$x_Ga_qwell \
                               y.min=$barrier_width_5 abs
# Repeat QW4 system
region num=4  name=rg_barrier  material=InP      y.min=$comb5 
region num=5  name=rg_qwell    material=InGaAs x.comp=$x_Ga_qwell \
                               y.min=$comb5+$barrier_width_4 abs
# Repeat QW3 system
region num=6  name=rg_barrier  material=InP      y.min=$comb4 
region num=7  name=rg_qwell    material=InGaAs x.comp=$x_Ga_qwell \
                               y.min=$comb4+$barrier_width_3 abs
# Repeat QW2 system
region num=8  name=rg_barrier  material=InP      y.min=$comb3 
region num=9  name=rg_qwell    material=InGaAs x.comp=$x_Ga_qwell \
                               y.min=$comb3+$barrier_width_2 abs

# Repeat QW1 system
region num=10  name=rg_barrier  material=InP      y.min=$comb2 
region num=11  name=rg_qwell    material=InGaAs x.comp=$x_Ga_qwell \
                                y.min=$comb2+$barrier_width_1 abs
# The last barrier (barrier 0)
region num=12  name=rg_barrier  material=InP      y.min=$comb1 

##-- End Multi-QW regions
region num=13 name=rg_bulk_sub  material=InP y.min=$comb0 y.max=$comb0+$right_bulk_width 
region num=14 name=rg_bulk_sub2 material=InP y.min=$comb0+$right_bulk_width substrate

# define InGaAsP QW; In(1-x)Ga(x)As(y)P(1-y) 
#region num=2 name=rg_InGaAsP_qw1 material=InGaAsP x.comp=$X_Ga_Radial y.comp=$Y_As_Radial \
#                             y.min=$InP_top \ 
#                             y.max=$InP_top+1*$QW_radial \
#                             qwell well.ny=$QM_solver_grid qwnum=1

 
# define InGaAsP; Top axial QW; In(1-x)Ga(x)As(y)P(1-y)  
# NOTE I shrink the top axial QW region so it doesn't touch the radial QWs 
#region num=7 name=QW_Axial material=InGaAsP x.comp=$"X_Ga_Axial" y.comp=$"Y_As_Axial" \  
#                           x.min= -$"INP_I_SHELL_INNER_RADIUS" x.max=$"INP_I_SHELL_INNER_RADIUS" \  
#       y.min=$"INP_I_SHELL_INNER_HEIGHT" y.max=$"INGAAS_QW_HEIGHT" \  
#       qwell led well.ny=$"QM_solver_grid" qwnum=1 
# define InGaAsP; Left radial QW; In(1-x)Ga(x)As(y)P(1-y) 
#region num=7 name=QW_Radial_Left material=InGaAsP x.comp=$"X_Ga_Radial" y.comp=$"Y_As_Radial" \
#                           y.min= -$"INGAAS_QW_RADIUS" y.max= -$"INP_I_SHELL_INNER_RADIUS" \ 
#                           x.min=0 x.max= $"INP_PPLUS_CORE_HEIGHT" \
#                           qwell led well.ny=$"QM_solver_grid" qwnum=1 
## define InGaAsP; Right radial QW; In(1-x)Ga(x)As(y)P(1-y) 
#region num=8 name=QW_Radial_Right material=InGaAsP x.comp=$"X_Ga_Radial" y.comp=$"Y_As_Radial" \
#                           y.min= $"INP_I_SHELL_INNER_RADIUS" y.max=$"INGAAS_QW_RADIUS" \
#                           x.min=0 x.max= $"INP_PPLUS_CORE_HEIGHT" \
#                           qwell led well.ny=$"QM_solver_grid" qwnum=2 
 
# NOTE there is no i-InP inner shell in the AxialQW-ONLY configuration 
# define NW i-InP inner shell (NOTE: will overwrite parts of structures specified above) 
#region num=9 name=InP_i_inner_shell material=InP x.min= -$"INP_I_SHELL_INNER_RADIUS" x.max=$"INP_I_SHELL_INNER_RADIUS" \
#                                                  y.min=0 y.max=$"INP_I_SHELL_INNER_HEIGHT" 

# 
#------------------------------------------------------------------------ 
#Section 6: define electrical contact 
#------------------------------------------------------------------------ 
electrode name=substrate  bottom
electrode name=emitter    top
 
# 
#------------------------------------------------------------------------ 
#Section 7: define doping concentration 
#------------------------------------------------------------------------ 
doping name=rg_bulk_outer   uniform n.type conc=$dpconc_bulk_contact 
doping name=rg_bulk_sub     uniform n.type conc=$dpconc_bulk_contact 
doping name=rg_bulk_sub2    uniform n.type conc=$dpconc_sub
#doping name=rg_qwell   uniform n.type conc=$dpconc_qwell
doping name=rg_barrier uniform n.type conc=$dpconc_barrier


# 
#------------------------------------------------------------------------ 
#Section 8.1: define bulk material properties 
#------------------------------------------------------------------------ 
material name=rg_bulk_outer    taun0=0.3e-9  taup0=0.3e-9  copt=1.2e-10
material name=rg_bulk_sub      taun0=0.3e-9  taup0=0.3e-9  copt=1.2e-10
material name=rg_bulk_sub2     taun0=0.3e-9  taup0=0.3e-9  copt=1.2e-10
material name=rg_qwell         taun0=0.3e-9  taup0=0.3e-9  copt=1.1e-10
material name=rg_barrier       taun0=0.3e-9  taup0=0.3e-9  copt=1.2e-10

# define the temperature dependent bandgap for InGaAsP quantum well
# NOTE: the parameter 'eg300' is back calcualted from the bandgap at 300K. 
#       the room-temp bandgap is read from the silvaco output, and is a fitting paramter that 
#       matches room-temp PL peak.
# The empirical Varshini formula for the temperature dependent bandgap parameters are extracted from 
# Ref: K.Satzke, G. Weiser, R. Hoger, W.Thulke, J. Appl. Phys., 63, no.11, pp.5485-5490 (1988).
#material name=rg_qwell eg300=0.63 egalpha=4.26e-4 egbeta=224
# For InP, the Silvaco default (specifying 'models cubic35') is the same as Vurgaftman et al.
# BUT these default bandgap input parameters do not agree with our InP PL measurement
# Therefore, the input parameters are modified after fitting the experimental PL spectra.
material name=rg_bulk_outer eg300=1.32282 egalpha=0.000306086 egbeta=44.3822
material name=rg_bulk_sub   eg300=1.32282 egalpha=0.000306086 egbeta=44.3822
material name=rg_barrier    eg300=1.32282 egalpha=0.000306086 egbeta=44.3822

# Adjust the band alignment between InP and InGaAs
material name=rg_bulk_outer align=$dEc_per
material name=rg_bulk_sub   align=$dEc_per 
material name=rg_barrier    align=$dEc_per

# Include incomplete ionization model
# For InP NW, n-type dopant is Si and p-type dopant is Zn
# get the dopant activation energy from: https://www.ioffe.ru/SVA/NSM/Semicond/InP/bandstr.html#Donors
material name=rg_bulk_outer    gcb=2 edb=0.0057 gvb=4 eab=0.035
material name=rg_bulk_sub      gcb=2 edb=0.0057 gvb=4 eab=0.035
material name=rg_bulk_sub2     gcb=2 edb=0.0057 gvb=4 eab=0.035
material name=rg_barreir       gcb=2 edb=0.0057 gvb=4 eab=0.035
# For InGaAs
# Ref: http://www.ioffe.ru/SVA/NSM/Semicond/GaInAs/bandstr.html#Donors
# NOTE the value of the shallow donor energy level (Sn, Ge, Si, C) is ideally for Ga(0.47)In(0.53)As
material name=rg_qwell gcb=2 edb=0.005 


## set up Lorentzian line broadening
#set lorenzian_gamma0 = 1.0e-6
set lorenzian_gamma0 = 10e-3
#set lorenzian_gamma0 = 1.5e-2
material well.gamma0=$lorenzian_gamma0

#TODO: to be extracted perhaps from the kp_8_band{} parameters in Nextnano
material name=rg_qwell  ep.mbulk=22.94 
# define the carrier capture time for the capture-escape model
# WELL.TAUN sets the lifetime of a 3D carrier due to its capture by the wells
# by emission of a phonon. This lifetime dominates at 300 K with a value of
# roughly 1 ps [Ref-2].
# Ref-2. H. Schneider, H.C. Liu, "Quantum Well Infrared Photodetectors: 
#        Physics and Applications", Springer-Verlag, Berlin, (2007)
material name=rg_qwell  well.taun = 1.0e-12

# For the InP region, set its absorption coefficient (i.e., img.index) zero to
# remove background absorption of the TE polarised light
# Ref: https://refractiveindex.info/?shelf=main&book=InP&page=Aspnes
material name=rg_bulk_outer  imag.index=0.0 real.index=3.5896 
material name=rg_barrier     imag.index=0.0 real.index=3.5896 
material name=rg_bulk_sub    imag.index=0.0 real.index=3.5896 
material name=rg_bulk_sub2   imag.index=0.0 real.index=3.5896 

#TODO: the line below should be replaced by the tabulated data that you just simulated. 
# case 1: no optical pumping: 
# for wavelength 2-6, simply set imag.index=0
material name=rg_qwell imag.index=0 real.index=3.9123 
# case 2: with optical pumping
# import the imag.index values for wavelength corresponding to interband transitions from the downloaded csv file
# then, you can solve the corresponding beam with input wave ~2-6 and confirm you do not have any photocurrent generated 
# (you may need to turn off the slatt calculation to shut down the intraband channel to confirm the above)
# for wavelength 2-6, still set imag.index=0

 
# 
#------------------------------------------------------------------------ 
#Section 8.2: define interface properties  
#------------------------------------------------------------------------ 
#interface qf=-1e12 ^S.I S.X y.min=0.0 y.max=$"INP_NPLUS_SHELL_HEIGHT" x.min=-$"INP_NPLUS_SHELL_RADIUS" x.max=-$"INP_NPLUS_SHELL_RADIUS"+1*$"GRID_SPACING_RADIAL_2" \  
#          S.N=1e5 S.P=1e5 
#interface qf=-1e12 ^S.I S.X y.min=0.0 y.max=$"INP_NPLUS_SHELL_HEIGHT" x.min= $"INP_NPLUS_SHELL_RADIUS"-1*$"GRID_SPACING_RADIAL_2" x.max= $"INP_NPLUS_SHELL_RADIUS" \  
#          S.N=1e5 S.P=1e5 


# 
#------------------------------------------------------------------------ 
#Section 9: define models to be used 
#------------------------------------------------------------------------ 
# define model applied to the entire domain 
models incomplete temperature=$TL
#NOTE: InP assumes cubic35, 
#      but InGaAsP use the silvaco's default material database (consistent with NSM Archive)
models fermi srh cubic35 print

## Extra Note 1: setting 'lorentz' in both 'rg_qwell' and 'rg_barrier' or just in 'rg_qwell' seems to give the same absorption profile.
models name=rg_qwell       nslatt slatt.cnts=$num_BtoC_coupling_states nqwell well.ny=$QM_solver_grid zb.one well.cnbs=20 
models name=rg_barrier     nslatt slatt.cnts=$num_BtoC_coupling_states nqwell well.ny=$QM_solver_grid zb.one well.cnbs=20 
models name=rg_qwell       spontaneous intersub.spon well.capt well.selfcon lorentz
models name=rg_barrier     spontaneous intersub.spon well.capt well.selfcon lorentz
models name=rg_bulk_outer  well.margin=0.0
models name=rg_bulk_sub    well.margin=0.0

#define constant mobility 
mobility name=rg_barrier         mun=120 mup=100  
mobility name=rg_bulk_outer      mun=120 mup=100  
mobility name=rg_bulk_sub        mun=120 mup=100  
mobility name=rg_qwell           mun=150 mup=120


# Enable the command below if you do a single run to save the device structure; 
# otherwise, save the time and not save a device structure 
save outf=NwQWIP1D_RadialQWs_QausiDevice_noOP.str 


# 
#------------------------------------------------------------------------ 
#Section 10: set up optical source 
#------------------------------------------------------------------------ 
# We use the transfer matrix method (TR.MATRIX) to fully consider multiple
# reflections and coherent light propagation within the active layer. Since
# the device is assumed uniform in the lateral direction, this 1D solution 
# to the Helmholtz equation can be applied at all beam angles. Since 
# TM absorption occurs only for non-normal incidence, we set the ANGLE 
# of the beam to 120, which is 30 degrees from the normal.
#
beam num=1 qwip tr.matrix  tblack=300 x.origin =$nw_core_height y.origin=-0.5-$left_bulk_width \
wavelength=4.353 angle=160 verbose 

# ------------------------------------------------- END: basic device setup -----------------------------------------------------------------------------------------------## 
 
#method gummel newton 
method gummel newton min.temp=2.0 max.temp=1000.0
method maxtrap=20   itlimit=25
#method maxtrap=10   itlimit=25  
 
 
#define some output for standard structure files 
output con.band val.band band.param photogen
 
#define some special probes 
#probe name=mybands_QW_radial y=$"INP_PPLUS_CORE_HEIGHT"/2.0 x.min= -$"INP_NPLUS_SHELL_RADIUS" x.max=$"INP_PPLUS_CORE_RADIUS" con.band val.band qfn qfp nwell pwell state=1  
 
# -------------- Result Section 1: dark IV ----------------#
#solve init 
#log outf=NwQWIP1D_RadialQWs_QuasiDevice_IV_dark_fb.log
#log outf=NwQWIP1D_RadialQWs_QuasiDevice_IV_dark_rb.log
#solve vsubstrate=0.0  name=substrate outfile=NwQWIP1D_RadialQWs_QuasiDevice_noOP_dark_bias_0p0V.sta master onefileonly
#solve vsubstrate=0.05 vstep=0.05 vfinal=0.5 name=substrate outfile=NwQWIP1D_RadialQWs_QuasiDevice_dark_bias_0p5V.sta master onefileonly
#solve vsubstrate=0.05 vstep=0.05 vfinal=3.0 name=substrate  
#solve vsubstrate=-0.05 vstep=-0.05 vfinal=-3.0 name=substrate  
#log off

# -------------- Result Section 2: light IV ----------------#
solve init 
#log outf=NwQWIP1D_RadialQWs_QuasiDevice_IV_light_fb.log
#log outf=NwQWIP1D_RadialQWs_QuasiDevice_IV_light_rb.log
solve B1=1e9 beam=1
solve vsubstrate=0.0  name=substrate outfile=NwQWIP1D_RadialQWs_QuasiDevice_light_bias_0p0V.sta master onefileonly
#solve vsubstrate=0.05 vstep=0.05 vfinal=0.5 name=substrate outfile=NwQWIP1D_RadialQWs_QuasiDevice_light_bias_0p5V.sta master onefileonly
#solve vsubstrate=0.0 vstep=0.05 vfinal=3.0 name=substrate  
#solve vsubstrate=0.0 vstep=-0.05 vfinal=-3.0 name=substrate  
#log off
quit

# -------------- Result Section 3: light intensity dependence ----------------#
#solve init 
#solve vsubstrate=0.0 vstep=0.05 vfinal=0.5 name=substrate  
#log outf=NwQWIP1D_RadialQWs_QuasiDevice_light_intensity_sweep.log
#solve B1=100 lit.step=100 nstep=9 
#log off


# -------------- Result Section 4: light angle response ----------------#
# Here we compute the QWIP response to changing the beam angle. The ANGLE
# parameter below is added to the ANGLE parameter specified in the BEAM
# statement above. Thus the angular response starts at 120-30=90 or a 
# normal incidence beam and continues upto an angle of 120+50-90=80 degrees
# with respect to the normal
#solve init
#log outf=NwQWIP1D_RadialQWs_QuasiDevice_angle_dependence.log
##solve vsubstrate=0.0 vstep=0.05 vfinal=0.5 name=substrate  
##solve prev
#solve b1=1e5 beam=1 angle=-30.0 astep=1.0 afinal=50.0
##solve B1=1.0 beam=1 lambda=2.0 wfinal=6.0 wstep=0.1
#log off

# -------------- Result Section 3: spectral response ----------------#
#solve init
#log outf=NwQWIP1D_RadialQWs_QuasiDevice_Intraband_response_bias_0p5.log
#solve vsubstrate=0.0 vstep=0.05 vfinal=0.5 name=substrate  
#solve prev
#solve B1=1e9 beam=1 lambda=2.0 wfinal=6.0 wstep=0.1

#quit










##save qwell.spectrum=NwQWIP_Radial1D_v1_ZBONE_interband_bias_0p0V_300K.log lmin=1.0 lmax=1.8 nsamp=300 
#save SPEC.INTERSUB="intraband_NwQWIP_bias_0V_300K_xGa_$'x_Ga_qwell'_dEcPer_$'dEc_per'_numBtC_$'num_BtoC_coupling_states'.log" lmin=2.0 lmax=6.0 nsamp=600 
##save SPEC.INTERSUB=NwQWIP_Radial1D_v1_intersubband_bias_0p0V_300K.log lmin=2.0 lmax=6.0 nsamp=800
#
## extract and save the data
#go internal
#get_data infile="intraband_NwQWIP_bias_0V_300K_xGa_$'x_Ga_qwell'_dEcPer_$'dEc_per'_numBtC_$'num_BtoC_coupling_states'.log" \
#         outfile="extracted_intraband_xGa_$'x_Ga_qwell'_dEcPer_$'dEc_per'_numBtC_$'num_BtoC_coupling_states'.dat" \
#         name="Wavelength;Gain (TM, electrons) (well 1) (1/cm)" 
#
#quit

## NOTE: the extraction function currently does not work!
## It cannot extract any quantities from a spectrum file!
# extract the normalised InGaAs PL specture for the Deckbuild optimizer
#extract init infile="NwQWIP_Radial1D_v1_ZBONE_interband_bias_0p0V_300K.log"
#extract init infile="NwQWIP_Radial1D_v1_ZBONE_interband_bias_0p0V_300K.spc"
#extract name="InGaAs_PL_normalised" curve("Wavelength", "Flux Spectral Density"/max("Flux Spectral Density")) outfile="test.dat"
#extract name="InGaAs_PL_normalised" curve("Wavelength", "Flux Spectral Density (well 1)"/max("Flux Spectral Density (well 1)")) outfile="test.dat"
#extract name="InGaAs_PL_normalised" curve(elect."Wavelength",elect."Wavelength"/max(elect."Wavelength")) outfile="test.dat"
#extract name="InGaAs_PL_normalised" curve(elect."Wavelength",impurity=elect."Power Spectral Density (well 1)") outfile="test.dat"

#solve vsubstrate=0.1 vstep=0.1 vfinal=1.5  name=substrate outfile=InGaAs_InP_QWIP_1993_v1_bias_1p5V.sta master onefileonly
#save SPEC.INTERSUB=InGaAs_InP_QWIP_1993_v1_intersubband_bias_1p5V.log lmin=5.0 lmax=10.0 nsamp=300

#solve vsubstrate=0.1 vstep=0.1 vfinal=3.5  name=substrate outfile=InGaAs_InP_QWIP_1993_v1_bias_3p5V.sta master onefileonly
#save SPEC.INTERSUB=InGaAs_InP_QWIP_1993_v1_intersubband_bias_3p5V.log lmin=5.0 lmax=10.0 nsamp=300


#quit

## ----------------------------------------------------- For ZB.ONE model -------------------------------------------------------##
### Generate the solution at bias=0.0V
#solve    vsubstrate=0.0  name=substrate outfile=QWIP_simple_1D_v1_ZB_ONE_bias_0p0V.sta master onefileonly
#save qwell.spectrum=QWIP_simple_1D_v1_ZB_ONE_interband_bias_0p0V.log lmin=0.90 lmax=2.0 nsamp=300 
#save SPEC.INTERSUB=QWIP_simple_1D_v1_ZB_ONE_intersubband_bias_0p0V.log lmin=1.5 lmax=9.0 nsamp=900
#
#
### do a bias sweep by applying positive voltage on substrate
#load infile=QWIP_simple_1D_v1_ZB_ONE_bias_0p0V.sta master
#log outfile=QWIP_simple_1D_v1_ZB_ONE_IV_pos_bias_on_subtrate.log
#
#solve    vsubstrate=0.0 vstep=0.1 vfinal=1.0  name=substrate outfile=QWIP_simple_1D_v1_ZB_ONE_bias_1p0V.sta master onefileonly
#save qwell.spectrum=QWIP_simple_1D_v1_ZB_ONE_interband_bias_1p0V.log lmin=0.90 lmax=2.0 nsamp=300 
#save SPEC.INTERSUB=QWIP_simple_1D_v1_ZB_ONE_intersubband_bias_1p0V.log lmin=1.5 lmax=9.0 nsamp=900 
#
#solve    vsubstrate=1.1 vstep=0.1 vfinal=2.0  name=substrate outfile=QWIP_simple_1D_v1_ZB_ONE_bias_2p0V.sta master onefileonly
#save qwell.spectrum=QWIP_simple_1D_v1_ZB_ONE_interband_bias_2p0V.log lmin=0.90 lmax=2.0 nsamp=300 
#save SPEC.INTERSUB=QWIP_simple_1D_v1_ZB_ONE_intersubband_bias_2p0V.log lmin=1.5 lmax=9.0 nsamp=900 
#
#log off 
#
### do a bias sweep by applying negative voltage on substrate
#load infile=QWIP_simple_1D_v1_ZB_ONE_bias_0p0V.sta master
#log outfile=QWIP_simple_1D_v1_ZB_ONE_IV_neg_bias_on_subtrate.log
#
#solve    vsubstrate=0.0 vstep=-0.1 vfinal=-1.0  name=substrate outfile=QWIP_simple_1D_v1_ZB_ONE_bias_m1p0V.sta master onefileonly
#save qwell.spectrum=QWIP_simple_1D_v1_ZB_ONE_interband_bias_m1p0V.log lmin=0.90 lmax=2.0 nsamp=300 
#save SPEC.INTERSUB=QWIP_simple_1D_v1_ZB_ONE_intersubband_bias_m1p0V.log lmin=1.5 lmax=9.0 nsamp=900 
#
#solve    vsubstrate=-1.1 vstep=-0.1 vfinal=-2.0  name=substrate outfile=QWIP_simple_1D_v1_ZB_ONE_bias_m2p0V.sta master onefileonly
#save qwell.spectrum=QWIP_simple_1D_v1_ZB_ONE_interband_bias_m2p0V.log lmin=0.90 lmax=2.0 nsamp=300 
#save SPEC.INTERSUB=QWIP_simple_1D_v1_ZB_ONE_intersubband_bias_m2p0V.log lmin=1.5 lmax=9.0 nsamp=900 
#
#log off
## -------------------------------------------------------End: ZB.ONE model ----------------------------------------------------------##


## ----------------------------------------------------- For ZB.TWO model -------------------------------------------------------##
## Generate the solution at bias=0.0V
#solve    vsubstrate=0.0  name=substrate outfile=QWIP_simple_1D_v1_ZB_TWO_bias_0p0V.sta master onefileonly
#save qwell.spectrum=QWIP_simple_1D_v1_ZB_TWO_interband_bias_0p0V.log lmin=0.90 lmax=2.0 nsamp=300 
#save SPEC.INTERSUB=QWIP_simple_1D_v1_ZB_TWO_intersubband_bias_0p0V.log lmin=1.5 lmax=9.0 nsamp=900
#
#
## do a bias sweep by applying positive voltage on substrate
#load infile=QWIP_simple_1D_v1_ZB_TWO_bias_0p0V.sta master
#log outfile=QWIP_simple_1D_v1_ZB_TWO_IV_pos_bias_on_subtrate.log
#
#solve    vsubstrate=0.0 vstep=0.1 vfinal=1.0  name=substrate outfile=QWIP_simple_1D_v1_ZB_TWO_bias_1p0V.sta master onefileonly
#save qwell.spectrum=QWIP_simple_1D_v1_ZB_TWO_interband_bias_1p0V.log lmin=0.90 lmax=2.0 nsamp=300 
#save SPEC.INTERSUB=QWIP_simple_1D_v1_ZB_TWO_intersubband_bias_1p0V.log lmin=1.5 lmax=9.0 nsamp=900 
#
#solve    vsubstrate=1.1 vstep=0.1 vfinal=2.0  name=substrate outfile=QWIP_simple_1D_v1_ZB_TWO_bias_2p0V.sta master onefileonly
#save qwell.spectrum=QWIP_simple_1D_v1_ZB_TWO_interband_bias_2p0V.log lmin=0.90 lmax=2.0 nsamp=300 
#save SPEC.INTERSUB=QWIP_simple_1D_v1_ZB_TWO_intersubband_bias_2p0V.log lmin=1.5 lmax=9.0 nsamp=900 
#
#log off 
#
## do a bias sweep by applying negative voltage on substrate
#load infile=QWIP_simple_1D_v1_ZB_TWO_bias_0p0V.sta master
#log outfile=QWIP_simple_1D_v1_ZB_TWO_IV_neg_bias_on_subtrate.log
#
#solve    vsubstrate=0.0 vstep=-0.1 vfinal=-1.0  name=substrate outfile=QWIP_simple_1D_v1_ZB_TWO_bias_m1p0V.sta master onefileonly
#save qwell.spectrum=QWIP_simple_1D_v1_ZB_TWO_interband_bias_m1p0V.log lmin=0.90 lmax=2.0 nsamp=300 
#save SPEC.INTERSUB=QWIP_simple_1D_v1_ZB_TWO_intersubband_bias_m1p0V.log lmin=1.5 lmax=9.0 nsamp=900 
#
#solve    vsubstrate=-1.1 vstep=-0.1 vfinal=-2.0  name=substrate outfile=QWIP_simple_1D_v1_ZB_TWO_bias_m2p0V.sta master onefileonly
#save qwell.spectrum=QWIP_simple_1D_v1_ZB_TWO_interband_bias_m2p0V.log lmin=0.90 lmax=2.0 nsamp=300 
#save SPEC.INTERSUB=QWIP_simple_1D_v1_ZB_TWO_intersubband_bias_m2p0V.log lmin=1.5 lmax=9.0 nsamp=900 
#
#log off
## -------------------------------------------------------End: ZB.TWO model ----------------------------------------------------------##
